03_OpenDSS_Circuits/Commonwealth_Circuit_Opendss/Sections.DSS
// *******************************
// Defines Line names (Sections) for fused and regulators
New Line.258908455 Bus1=258908452 Bus2=258908457
New Line.258908273 Bus1=258908270 Bus2=258908275
New Line.258904311 Bus1=258904308 Bus2=258904313
New Line.264256886 Bus1=260762272 Bus2=264256884
New Line.263962003 Bus1=263962000 Bus2=261302041
New Line.258908278 Bus1=258908275 Bus2=258908280
New Line.260761331 Bus1=260761328 Bus2=260761333
New Line.264256882 Bus1=264256884 Bus2=260762277
New Line.699603826 Bus1=699603823 Bus2=258903826
New Line.258904399 Bus1=258904396 Bus2=258904401
New Line.258904130 Bus1=258904125 Bus2=258904132
New Line.699603825 Bus1=258903821 Bus2=699603823
New Line.263642066 Bus1=263642063 Bus2=258896333
New Line.258904135 Bus1=258904132 Bus2=258904137
New Line.258908373 Bus1=258908370 Bus2=258908375
New Line.258908433 Bus1=258908430 Bus2=258908435
New Line.260761151 Bus1=260761148 Bus2=260761153
New Line.260761156 Bus1=260761153 Bus2=260761158
New Line.258904093 Bus1=258904090 Bus2=258904095
New Line.260761296 Bus1=260761293 Bus2=260761298
New Line.258904013 Bus1=258904010 Bus2=258904015
New Line.263642061 Bus1=258896328 Bus2=263642063
New Line.699645828 Bus1=699645825 Bus2=258904651
New Line.263530741 Bus1=263530738 Bus2=258907891
New Line.258908378 Bus1=258908375 Bus2=258908380
New Line.258908438 Bus1=258896333 Bus2=258908440
New Line.699645827 Bus1=258904646 Bus2=699645825
New Line.258904018 Bus1=258904010 Bus2=258904020
New Line.263530745 Bus1=258896640 Bus2=263530747
New Line.258904098 Bus1=258904095 Bus2=258904100
New Line.699645908 Bus1=699645905 Bus2=258904528
New Line.258903933 Bus1=258903930 Bus2=258903935
New Line.260761311 Bus1=260761308 Bus2=260761313
New Line.699645907 Bus1=699645894 Bus2=699645905
New Line.699603807 Bus1=263532863 Bus2=699603805
New Line.258904113 Bus1=258904110 Bus2=258904115
New Line.699603885 Bus1=699603882 Bus2=258903863
New Line.699603884 Bus1=258903858 Bus2=699603882
New Line.258908074 Bus1=258908071 Bus2=258908076
New Line.258903812 Bus1=258903807 Bus2=258903814
New Line.258903938 Bus1=258903935 Bus2=258903940
New Line.258908353 Bus1=258908350 Bus2=258908355
New Line.258903891 Bus1=258903878 Bus2=258903893
New Line.258908079 Bus1=258908076 Bus2=258908081
New Line.263991391 Bus1=258904698 Bus2=263991393
New Line.260760191 Bus1=260760188 Bus2=260760193
New Line.261302049 Bus1=261302041 Bus2=261302051
New Line.263991396 Bus1=263991393 Bus2=258904703
New Line.455183905 Bus1=455183901 Bus2=258896476
New Line.263530723 Bus1=263530720 Bus2=260760188
New Line.704839530 Bus1=258904030 Bus2=704839528
New Line.704839531 Bus1=704839528 Bus2=258904035
New Line.258908233 Bus1=258908230 Bus2=258908235
New Line.258908358 Bus1=258908355 Bus2=258908360
New Line.258908418 Bus1=258908415 Bus2=258908420
New Line.258903819 Bus1=258903814 Bus2=258903821
New Line.258903898 Bus1=258903893 Bus2=258903900
New Line.263530727 Bus1=258896623 Bus2=263530729
New Line.260761094 Bus1=260761091 Bus2=260761086
New Line.478673659 Bus1=258908250 Bus2=258908260
New Line.263533244 Bus1=263533241 Bus2=258904757
New Line.261302044 Bus1=261302045 Bus2=261245654
New Line.263530682 Bus1=258896517 Bus2=263530684
New Line.258903913 Bus1=258903910 Bus2=258903915
New Line.258908238 Bus1=258908235 Bus2=258908240
New Line.263530687 Bus1=263530684 Bus2=260762257
New Line.258908179 Bus1=258896476 Bus2=258908181
New Line.260761119 Bus1=260761116 Bus2=260761121
New Line.258907874 Bus1=258907869 Bus2=258907876
New Line.258908054 Bus1=258908055 Bus2=258908056
New Line.263533064 Bus1=263533061 Bus2=258904263
New Line.258903918 Bus1=258903919 Bus2=258903920
New Line.263533068 Bus1=258904231 Bus2=263533070
New Line.258903998 Bus1=258903995 Bus2=258904000
New Line.258908059 Bus1=258908056 Bus2=258908061
New Line.699624909 Bus1=258904191 Bus2=699624907
New Line.264308703 Bus1=260761081 Bus2=264308701
New Line.617632356 Bus1=617632353 Bus2=260761218
New Line.258907970 Bus1=258907965 Bus2=258907972
New Line.263530700 Bus1=258896544 Bus2=263530702
New Line.258908293 Bus1=258908290 Bus2=258908295
New Line.258908153 Bus1=258908145 Bus2=258908155
New Line.258908213 Bus1=258908208 Bus2=258908215
New Line.258908338 Bus1=258896459 Bus2=258908340
New Line.263533163 Bus1=263533160 Bus2=258904615
New Line.263997294 Bus1=258908474 Bus2=263997296
New Line.263533221 Bus1=258904718 Bus2=263533223
New Line.617632351 Bus1=258904493 Bus2=617632353
New Line.258907975 Bus1=258907972 Bus2=258907977
New Line.263530705 Bus1=263530702 Bus2=260760205
New Line.263533226 Bus1=263533223 Bus2=258904725
New Line.263997299 Bus1=263997296 Bus2=261282305
New Line.263533167 Bus1=258903838 Bus2=263533169
New Line.258907852 Bus1=258907849 Bus2=258907854
New Line.263530709 Bus1=258896551 Bus2=263530711
New Line.258908032 Bus1=258908029 Bus2=258908034
New Line.258908158 Bus1=258908155 Bus2=258908160
New Line.258908218 Bus1=258908215 Bus2=258908220
New Line.258907857 Bus1=258907854 Bus2=258907859
New Line.258908298 Bus1=258908295 Bus2=258908300
New Line.263533041 Bus1=258904147 Bus2=263533043
New Line.263533046 Bus1=263533043 Bus2=258904176
New Line.258908037 Bus1=258908034 Bus2=258908039
New Line.259148828 Bus1=258903795 Bus2=258903806
New Line.258908393 Bus1=258908390 Bus2=258908395
New Line.258908313 Bus1=258908310 Bus2=258908315
New Line.258896650 Bus1=258896647 Bus2=258896652
New Line.258907953 Bus1=258907950 Bus2=258907955
New Line.258908318 Bus1=258908315 Bus2=258908320
New Line.263533203 Bus1=258904693 Bus2=263533205
New Line.258908398 Bus1=258908395 Bus2=258908400
New Line.258908131 Bus1=258908126 Bus2=258908133
New Line.264491245 Bus1=264491247 Bus2=258680605
New Line.258907832 Bus1=258907824 Bus2=258907834
New Line.258908138 Bus1=258908133 Bus2=258908140
New Line.263533023 Bus1=258904000 Bus2=263533025
New Line.263533208 Bus1=263533205 Bus2=260761308
New Line.258908010 Bus1=258908007 Bus2=258908012
New Line.258896479 Bus1=258896469 Bus2=258896481
New Line.264491249 Bus1=258903945 Bus2=264491247
New Line.258908015 Bus1=258908012 Bus2=258908017
New Line.258908094 Bus1=258908091 Bus2=258908096
New Line.258896576 Bus1=258896573 Bus2=258896578
New Line.258908099 Bus1=258908096 Bus2=258908101
New Line.617632317 Bus1=258904498 Bus2=617632319
New Line.258896571 Bus1=258896566 Bus2=258896573
New Line.258907933 Bus1=258907928 Bus2=258907935
New Line.263533122 Bus1=258904478 Bus2=263533124
New Line.258908191 Bus1=258908188 Bus2=258908193
New Line.258896452 Bus1=258896449 Bus2=258896454
New Line.258896638 Bus1=258896639 Bus2=258896640
New Line.258908196 Bus1=258908193 Bus2=258908198
New Line.259184262 Bus1=258896628 Bus2=258896639
New Line.263533127 Bus1=263533124 Bus2=260761243
New Line.258907812 Bus1=258907804 Bus2=258907814
New Line.258907938 Bus1=258907935 Bus2=258907940
New Line.263533082 Bus1=263533079 Bus2=260761148
New Line.258907817 Bus1=258907809 Bus2=258907819
New Line.258908119 Bus1=258908116 Bus2=258908121
New Line.263533001 Bus1=263532998 Bus2=260761071
New Line.258907894 Bus1=258907891 Bus2=258907896
New Line.263533086 Bus1=258904367 Bus2=263533088
New Line.258907899 Bus1=258907896 Bus2=258907901
New Line.263533005 Bus1=258903970 Bus2=263533007
New Line.716733229 Bus1=258903858 Bus2=716733231
New Line.258896554 Bus1=258896551 Bus2=258896556
New Line.258896376 Bus1=258896373 Bus2=258896378
New Line.258907990 Bus1=258907987 Bus2=258907992
New Line.258907916 Bus1=258907911 Bus2=258907918
New Line.263533100 Bus1=263533097 Bus2=260761141
New Line.263533181 Bus1=263533178 Bus2=258904634
New Line.258896435 Bus1=258896432 Bus2=258896437
New Line.258907995 Bus1=258907992 Bus2=258907997
New Line.263533180 Bus1=258903843 Bus2=263533178
New Line.258896430 Bus1=258896427 Bus2=258896432
New Line.258896559 Bus1=258896534 Bus2=258896561
New Line.263533104 Bus1=258904391 Bus2=263533106
New Line.263533185 Bus1=258904666 Bus2=263533187
New Line.263534361 Bus1=263534358 Bus2=258908188
New Line.258896371 Bus1=258896368 Bus2=258896373
New Line.263534365 Bus1=258908198 Bus2=263534367
New Line.263533109 Bus1=263533106 Bus2=260761136
New Line.627235850 Bus1=258896598 Bus2=258896613
New Line.258896537 Bus1=258896538 Bus2=258896539
New Line.258896532 Bus1=258896529 Bus2=258896534
New Line.263857509 Bus1=259365163 Bus2=263857511
New Line.263532861 Bus1=258903814 Bus2=263532863
New Line.258896356 Bus1=258896353 Bus2=258896358
New Line.258896496 Bus1=258896486 Bus2=258896498
New Line.263534343 Bus1=263534340 Bus2=260762267
New Line.258896413 Bus1=258896410 Bus2=258896415
New Line.258896491 Bus1=258896486 Bus2=258896493
New Line.263534401 Bus1=258908457 Bus2=263534403
New Line.263534406 Bus1=263534403 Bus2=260762272
New Line.263534347 Bus1=258907940 Bus2=263534349
New Line.263532960 Bus1=258903935 Bus2=263532962
New Line.263974100 Bus1=263974097 Bus2=259500718
New Line.258896596 Bus1=258896593 Bus2=258896598
New Line.263532965 Bus1=263532962 Bus2=260761101
New Line.258896515 Bus1=258896510 Bus2=258896517
New Line.263532843 Bus1=258903785 Bus2=263532845
New Line.263532969 Bus1=258903935 Bus2=263532971
New Line.258896591 Bus1=258896592 Bus2=258896593
New Line.264256778 Bus1=260761333 Bus2=264256776
New Line.258896336 Bus1=258896328 Bus2=258896338
New Line.263681996 Bus1=258904783 Bus2=263681998
New Line.259157436 Bus1=258904772 Bus2=258904783
New Line.263532848 Bus1=263532845 Bus2=258907693
New Line.263534320 Bus1=258907906 Bus2=263534322
New Line.263681992 Bus1=263681989 Bus2=258904779
New Line.264495344 Bus1=258896652 Bus2=264495346
New Line.263534324 Bus1=258907906 Bus2=263534322
New Line.263534325 Bus1=263534322 Bus2=258908116
New Line.258896294 Bus1=258896289 Bus2=258896296
New Line.263532942 Bus1=258903925 Bus2=263532944
New Line.263534329 Bus1=258907950 Bus2=263534331
New Line.263532947 Bus1=263532944 Bus2=260761116
New Line.264495223 Bus1=264495220 Bus2=258896316
New Line.264495349 Bus1=264495346 Bus2=258903780
New Line.258896299 Bus1=258896296 Bus2=258896301
New Line.264256756 Bus1=260761288 Bus2=264256758
New Line.263534383 Bus1=258908345 Bus2=263534385
New Line.263904548 Bus1=258908479 Bus2=263904550
New Line.258896393 Bus1=258896390 Bus2=258896395
New Line.263534301 Bus1=258907876 Bus2=263534303
New Line.264256751 Bus1=260761188 Bus2=264256749
New Line.263534306 Bus1=263534303 Bus2=258907881
New Line.264256634 Bus1=263530711 Bus2=264256632
New Line.699603639 Bus1=263532926 Bus2=699603637
New Line.263532920 Bus1=263532917 Bus2=260761178
New Line.263534388 Bus1=263534385 Bus2=258908350
New Line.264256630 Bus1=264256632 Bus2=260760193
New Line.258896319 Bus1=258896316 Bus2=258896321
New Line.263532924 Bus1=258903915 Bus2=263532926
New Line.264256734 Bus1=264256731 Bus2=260761158
New Line.264495209 Bus1=258896306 Bus2=264495211
New Line.264256733 Bus1=260761168 Bus2=264256731
New Line.263532888 Bus1=258903878 Bus2=263532890
New Line.458944742 Bus1=458944739 Bus2=258896400
New Line.263532902 Bus1=263532899 Bus2=258904527
New Line.263532983 Bus1=263532980 Bus2=258903955
New Line.458944741 Bus1=258896395 Bus2=458944739
New Line.263532906 Bus1=258903905 Bus2=263532908
New Line.263532987 Bus1=258903945 Bus2=263532989
New Line.699603610 Bus1=699603607 Bus2=258904186
New Line.699624652 Bus1=699624649 Bus2=258904070
New Line.699624651 Bus1=258904065 Bus2=699624649
New Line.699624738 Bus1=699624735 Bus2=258904065
New Line.699624737 Bus1=258904060 Bus2=699624735
New Line.699623291 Bus1=699623288 Bus2=258907668
New Line.699646218 Bus1=258904508 Bus2=699646216
New Line.699623290 Bus1=258907663 Bus2=699623288
New Line.699646219 Bus1=699646216 Bus2=258904513
New Line.699623036 Bus1=699603805 Bus2=699623034
New Line.699623037 Bus1=699623034 Bus2=258904666
New Line.699623114 Bus1=699623111 Bus2=258904708
New Line.699623113 Bus1=258904703 Bus2=699623111
New Line.699624374 Bus1=699624371 Bus2=258904110
New Line.699624373 Bus1=258904105 Bus2=699624371
New Line.633960134 Bus1=633960130 Bus2=633960111
New Line.633960092 Bus1=258896573 Bus2=633960094
New Line.258903783 Bus1=258903780 Bus2=258903785
New Line.264331251 Bus1=261180496 Bus2=264331249
New Line.258903788 Bus1=258903785 Bus2=258903790
New Line.264003737 Bus1=258903919 Bus2=264003739
New Line.699624174 Bus1=699624161 Bus2=699624172
New Line.699624175 Bus1=699624172 Bus2=258904010
New Line.258907760 Bus1=258907752 Bus2=258907762
New Line.258907765 Bus1=258907762 Bus2=258907767
New Line.260762260 Bus1=260762257 Bus2=260760210
New Line.699624253 Bus1=699624236 Bus2=699624251
New Line.699625174 Bus1=699625159 Bus2=699625172
New Line.699625175 Bus1=699625172 Bus2=258904253
New Line.258904760 Bus1=258904757 Bus2=258904762
New Line.258907740 Bus1=258907732 Bus2=258907742
New Line.258904765 Bus1=258904762 Bus2=258904767
New Line.699624238 Bus1=258904080 Bus2=699624236
New Line.699625514 Bus1=258904386 Bus2=699625512
New Line.263682365 Bus1=258903795 Bus2=263682367
New Line.699625515 Bus1=699625512 Bus2=258904391
New Line.264379695 Bus1=258896498 Bus2=264379697
New Line.258904644 Bus1=258904641 Bus2=258904646
New Line.264381920 Bus1=264381917 Bus2=258903807
New Line.470868502 Bus1=258903863 Bus2=470868498
New Line.258904469 Bus1=258904466 Bus2=258904471
New Line.258904740 Bus1=258904737 Bus2=258904742
New Line.258907723 Bus1=258907718 Bus2=258907725
New Line.699625150 Bus1=258904248 Bus2=699625148
New Line.258904745 Bus1=258903800 Bus2=258904747
New Line.699643894 Bus1=699643891 Bus2=258904278
New Line.699643893 Bus1=258904273 Bus2=699643891
New Line.699645090 Bus1=699645087 Bus2=258904268
New Line.258907681 Bus1=258904779 Bus2=258907683
New Line.258907686 Bus1=258907683 Bus2=258907688
New Line.466941350 Bus1=258896464 Bus2=466941352
New Line.466941356 Bus1=466941352 Bus2=258896469
New Line.258904444 Bus1=258904441 Bus2=258904446
New Line.258904449 Bus1=258904446 Bus2=258904451
New Line.699624112 Bus1=258904025 Bus2=699624110
New Line.258907701 Bus1=258907698 Bus2=258907703
New Line.258907780 Bus1=258907777 Bus2=258907782
New Line.258907706 Bus1=258907703 Bus2=258907708
New Line.260761266 Bus1=260761263 Bus2=260761268
New Line.258904681 Bus1=258904678 Bus2=258904683
New Line.258904541 Bus1=258904533 Bus2=258904543
New Line.258904546 Bus1=258904543 Bus2=258904548
New Line.258904686 Bus1=258904678 Bus2=258904688
New Line.466941332 Bus1=258896348 Bus2=466941334
New Line.699624095 Bus1=699624092 Bus2=258904030
New Line.699624094 Bus1=258904020 Bus2=699624092
New Line.258904365 Bus1=258904362 Bus2=258904367
New Line.704839766 Bus1=704839763 Bus2=263533214
New Line.466941338 Bus1=466941334 Bus2=258896353
New Line.258904429 Bus1=258904426 Bus2=258904431
New Line.258904246 Bus1=258904243 Bus2=258904248
New Line.258904787 Bus1=258904784 Bus2=258904789
New Line.704839761 Bus1=258904683 Bus2=704839763
New Line.260761246 Bus1=260761243 Bus2=260761248
New Line.699625097 Bus1=699625094 Bus2=258904258
New Line.699625096 Bus1=258904253 Bus2=699625094
New Line.258904486 Bus1=258904483 Bus2=258904488
New Line.258904404 Bus1=258904401 Bus2=258904406
New Line.699645956 Bus1=258904528 Bus2=699645954
New Line.699645957 Bus1=699645954 Bus2=258904533
New Line.260761346 Bus1=260761343 Bus2=260761338
New Line.258904348 Bus1=258904343 Bus2=258904350
New Line.263682005 Bus1=258903994 Bus2=263682007
New Line.699603854 Bus1=699603841 Bus2=699603852
New Line.258904409 Bus1=258904401 Bus2=258904411
New Line.699603855 Bus1=699603852 Bus2=258903838
New Line.263682001 Bus1=263681998 Bus2=258904784
New Line.258904164 Bus1=258904154 Bus2=258904166
New Line.258904224 Bus1=258904216 Bus2=258904226
New Line.260761221 Bus1=260761218 Bus2=260761223
New Line.260761166 Bus1=260761163 Bus2=260761168
New Line.260761226 Bus1=260761223 Bus2=260761213
New Line.258904043 Bus1=258904040 Bus2=258904045
New Line.258904169 Bus1=258904166 Bus2=258904171
New Line.258904229 Bus1=258904226 Bus2=258904231
New Line.258908467 Bus1=258908462 Bus2=258908469
New Line.258904501 Bus1=258904498 Bus2=258904503
New Line.275423535 Bus1=258908167 Bus2=275423537
New Line.258904048 Bus1=258904045 Bus2=258904050
New Line.637684626 Bus1=637684623 Bus2=258907839
New Line.258904326 Bus1=258904323 Bus2=258904328
New Line.263530673 Bus1=258896427 Bus2=263530675
New Line.637684625 Bus1=258907834 Bus2=637684623
New Line.258903963 Bus1=258903960 Bus2=258903965
New Line.261245658 Bus1=261245655 Bus2=261245650
New Line.258904140 Bus1=258904137 Bus2=258904142
New Line.258904281 Bus1=258904278 Bus2=258904283
New Line.263530678 Bus1=263530675 Bus2=258908415
New Line.258904286 Bus1=258904283 Bus2=258904288
New Line.699624872 Bus1=699624869 Bus2=699624854
New Line.260761281 Bus1=260761278 Bus2=260761283
New Line.258903968 Bus1=258903965 Bus2=258903970
New Line.258904145 Bus1=258904142 Bus2=258904147
New Line.260761201 Bus1=260761198 Bus2=260761203
New Line.261245653 Bus1=261245654 Bus2=261245655
New Line.260761206 Bus1=260761203 Bus2=260761208
New Line.699624871 Bus1=258903970 Bus2=699624869
New Line.258903841 Bus1=258903838 Bus2=258903843
New Line.258904023 Bus1=258904020 Bus2=258904025
New Line.258904209 Bus1=258904206 Bus2=258904211
New Line.258908445 Bus1=258908440 Bus2=258908447
New Line.258908263 Bus1=258908220 Bus2=258908265
New Line.258904301 Bus1=258904298 Bus2=258904303
New Line.258904306 Bus1=258904303 Bus2=258904308
New Line.258903943 Bus1=258903940 Bus2=258903945
New Line.258904384 Bus1=258904379 Bus2=258904386
New Line.260761301 Bus1=260761298 Bus2=260761288
New Line.258904123 Bus1=258904120 Bus2=258904125
New Line.699624857 Bus1=699624854 Bus2=258903975
New Line.275423519 Bus1=258896493 Bus2=258908167
New Line.258908363 Bus1=258908360 Bus2=258908365
New Line.258908423 Bus1=258908420 Bus2=258908425
New Line.637684708 Bus1=637684705 Bus2=258907747
New Line.258904003 Bus1=258904000 Bus2=258904005
New Line.263530750 Bus1=263530747 Bus2=258907869
New Line.637684703 Bus1=258907737 Bus2=637684705
New Line.258908243 Bus1=258908240 Bus2=258908245
New Line.258908368 Bus1=258908365 Bus2=258908370
New Line.258908428 Bus1=258908425 Bus2=258908430
New Line.699645896 Bus1=258904527 Bus2=699645894
New Line.258904088 Bus1=258904085 Bus2=258904090
New Line.704839483 Bus1=704839480 Bus2=260761293
New Line.455183899 Bus1=258896469 Bus2=455183901
New Line.258903923 Bus1=258903920 Bus2=258903925
New Line.258908248 Bus1=258908245 Bus2=258908250
New Line.258904103 Bus1=258904100 Bus2=258904105
New Line.258908064 Bus1=258908061 Bus2=258908066
New Line.699624834 Bus1=258903975 Bus2=699624832
New Line.699624835 Bus1=699624832 Bus2=258903980
New Line.260761181 Bus1=260761178 Bus2=260761183
New Line.258903928 Bus1=258903925 Bus2=258903930
New Line.258908343 Bus1=258908340 Bus2=258908345
New Line.258908403 Bus1=258908400 Bus2=258908405
New Line.258908482 Bus1=258908479 Bus2=258908484
New Line.260761186 Bus1=260761183 Bus2=260761188
New Line.258904189 Bus1=258904186 Bus2=258904191
New Line.258908487 Bus1=258908484 Bus2=258908489
New Line.260761104 Bus1=260761101 Bus2=260761106
New Line.258903886 Bus1=258903883 Bus2=258903888
New Line.471790416 Bus1=471790414 Bus2=258904610
New Line.263530732 Bus1=263530729 Bus2=258896633
New Line.471790415 Bus1=258904605 Bus2=471790414
New Line.258908223 Bus1=258908215 Bus2=258908225
New Line.258908408 Bus1=258908405 Bus2=258908410
New Line.259381734 Bus1=258908051 Bus2=258908055
New Line.263530736 Bus1=258896640 Bus2=263530738
New Line.699624910 Bus1=699624907 Bus2=258904196
New Line.258907862 Bus1=258907859 Bus2=258907864
New Line.261302054 Bus1=261302051 Bus2=261302045
New Line.264308690 Bus1=260761258 Bus2=264308692
New Line.263530691 Bus1=258896529 Bus2=263530693
New Line.258908042 Bus1=258907955 Bus2=258908044
New Line.258903903 Bus1=258903900 Bus2=258903905
New Line.258908228 Bus1=258908215 Bus2=258908230
New Line.263530696 Bus1=263530693 Bus2=258896538
New Line.264308694 Bus1=260761253 Bus2=264308692
New Line.699624816 Bus1=258903980 Bus2=699624814
New Line.263533077 Bus1=258904350 Bus2=263533079
New Line.699624817 Bus1=699624814 Bus2=258903985
New Line.699624892 Bus1=699624889 Bus2=258904201
New Line.258908323 Bus1=258908320 Bus2=258908325
New Line.699624891 Bus1=258904196 Bus2=699624889
New Line.258903988 Bus1=258903985 Bus2=258903990
New Line.258908049 Bus1=258908044 Bus2=258908051
New Line.264308712 Bus1=260761106 Bus2=264308710
New Line.258907963 Bus1=258907960 Bus2=258907965
New Line.258908283 Bus1=258908280 Bus2=258908285
New Line.263533172 Bus1=263533169 Bus2=258903848
New Line.617632322 Bus1=617632319 Bus2=260761198
New Line.258908143 Bus1=258908140 Bus2=258908145
New Line.258908328 Bus1=258908325 Bus2=258908330
New Line.263533230 Bus1=258904747 Bus2=263533232
New Line.258908201 Bus1=258908198 Bus2=258908203
New Line.258908206 Bus1=258908203 Bus2=258908208
New Line.263533176 Bus1=258903843 Bus2=263533178
New Line.258907842 Bus1=258907829 Bus2=258907844
New Line.263530718 Bus1=258896556 Bus2=263530720
New Line.263533235 Bus1=263533232 Bus2=260762245
New Line.258908148 Bus1=258908145 Bus2=258908150
New Line.258907847 Bus1=258907844 Bus2=258907849
New Line.258908020 Bus1=258908017 Bus2=258908022
New Line.258908288 Bus1=258908285 Bus2=258908290
New Line.263533050 Bus1=258904206 Bus2=263533052
New Line.263533239 Bus1=258904752 Bus2=263533241
New Line.258908027 Bus1=258908022 Bus2=258908029
New Line.263533055 Bus1=263533052 Bus2=260761163
New Line.258908383 Bus1=258908380 Bus2=258908385
New Line.263533059 Bus1=258904231 Bus2=263533061
New Line.258896645 Bus1=258896640 Bus2=258896647
New Line.617632389 Bus1=617632386 Bus2=258904508
New Line.617632388 Bus1=258904503 Bus2=617632386
New Line.258907943 Bus1=258907935 Bus2=258907945
New Line.258908308 Bus1=258908305 Bus2=258908310
New Line.258908388 Bus1=258908385 Bus2=258908390
New Line.258896462 Bus1=258896454 Bus2=258896464
New Line.263681965 Bus1=263681962 Bus2=258896459
New Line.263533217 Bus1=263533214 Bus2=260761328
New Line.258908124 Bus1=258908121 Bus2=258908126
New Line.258907948 Bus1=258907945 Bus2=258907950
New Line.263681960 Bus1=258896454 Bus2=263681962
New Line.263533032 Bus1=258904005 Bus2=263533034
New Line.263533158 Bus1=258904610 Bus2=263533160
New Line.258907827 Bus1=258907824 Bus2=258907829
New Line.258908000 Bus1=258907997 Bus2=258908002
New Line.263533037 Bus1=263533034 Bus2=258904055
New Line.258908005 Bus1=258908002 Bus2=258908007
New Line.258908084 Bus1=258908076 Bus2=258908086
New Line.258896626 Bus1=258896623 Bus2=258896628
New Line.258908089 Bus1=258908086 Bus2=258908091
New Line.716733259 Bus1=470868498 Bus2=716733211
New Line.258896564 Bus1=258896561 Bus2=258896566
New Line.716733252 Bus1=716733211 Bus2=716733250
New Line.716733253 Bus1=716733250 Bus2=258903873
New Line.258907921 Bus1=258907918 Bus2=258907923
New Line.258896447 Bus1=258896444 Bus2=258896449
New Line.258907926 Bus1=258907923 Bus2=258907928
New Line.263533131 Bus1=258904488 Bus2=263533133
New Line.258896442 Bus1=258896437 Bus2=258896444
New Line.263533136 Bus1=263533133 Bus2=260761233
New Line.258907802 Bus1=258907799 Bus2=258907804
New Line.258908104 Bus1=258908101 Bus2=258908106
New Line.264281558 Bus1=260760205 Bus2=264281556
New Line.258907807 Bus1=258907804 Bus2=258907809
New Line.258908109 Bus1=258908106 Bus2=258908111
New Line.263533010 Bus1=263533007 Bus2=258904120
New Line.263533091 Bus1=263533088 Bus2=258904396
New Line.258907884 Bus1=258907881 Bus2=258907886
New Line.263533014 Bus1=258903990 Bus2=263533016
New Line.263533095 Bus1=258904379 Bus2=263533097
New Line.716733239 Bus1=258904583 Bus2=258904627
New Line.258896542 Bus1=258896539 Bus2=258896544
New Line.258896366 Bus1=258896353 Bus2=258896368
New Line.258907980 Bus1=258907977 Bus2=258907982
New Line.263533113 Bus1=258904471 Bus2=263533115
New Line.258896425 Bus1=258896422 Bus2=258896427
New Line.258907985 Bus1=258907982 Bus2=258907987
New Line.263533190 Bus1=263533187 Bus2=260761343
New Line.716733234 Bus1=716733231 Bus2=258904583
New Line.263534370 Bus1=263534367 Bus2=258908305
New Line.258896420 Bus1=258896415 Bus2=258896422
New Line.258896549 Bus1=258896544 Bus2=258896551
New Line.258896361 Bus1=258896353 Bus2=258896363
New Line.263533194 Bus1=258904693 Bus2=263533196
New Line.258907909 Bus1=258907906 Bus2=258907911
New Line.263534374 Bus1=258908265 Bus2=263534376
New Line.263533118 Bus1=263533115 Bus2=260761263
New Line.263533199 Bus1=263533196 Bus2=260761318
New Line.263857514 Bus1=263857511 Bus2=261131003
New Line.263534379 Bus1=263534376 Bus2=258908270
New Line.258896527 Bus1=258896522 Bus2=258896529
New Line.258896520 Bus1=258896517 Bus2=258896522
New Line.264256769 Bus1=260761318 Bus2=264256767
New Line.258896346 Bus1=258896338 Bus2=258896348
New Line.263681987 Bus1=258904772 Bus2=263681989
New Line.263974095 Bus1=258908044 Bus2=263974097
New Line.259157441 Bus1=258903990 Bus2=258903994
New Line.258896484 Bus1=258896481 Bus2=258896486
New Line.263534352 Bus1=263534349 Bus2=258908071
New Line.258896403 Bus1=258896400 Bus2=258896405
New Line.264256760 Bus1=260761283 Bus2=264256758
New Line.258896341 Bus1=258896338 Bus2=258896343
New Line.263534356 Bus1=258908181 Bus2=263534358
New Line.627235806 Bus1=258896613 Bus2=627235805
New Line.627235807 Bus1=627235805 Bus2=258896618
New Line.699645766 Bus1=699645763 Bus2=258904620
New Line.258896408 Bus1=258896405 Bus2=258896410
New Line.627235800 Bus1=627235797 Bus2=627235688
New Line.699645765 Bus1=258904600 Bus2=699645763
New Line.263532974 Bus1=263532971 Bus2=260761091
New Line.699623268 Bus1=258904789 Bus2=699623266
New Line.699623269 Bus1=699623266 Bus2=258907663
New Line.263532852 Bus1=258903807 Bus2=263532854
New Line.263532978 Bus1=258903940 Bus2=263532980
New Line.258896503 Bus1=258896486 Bus2=258896505
New Line.258896581 Bus1=258896578 Bus2=258896583
New Line.263532857 Bus1=263532854 Bus2=258904718
New Line.258896326 Bus1=258896321 Bus2=258896328
New Line.627235905 Bus1=258896583 Bus2=258896592
New Line.264256742 Bus1=260761208 Bus2=264256740
New Line.258896508 Bus1=258896505 Bus2=258896510
New Line.258896287 Bus1=258896288 Bus2=258896289
New Line.263534334 Bus1=263534331 Bus2=258907960
New Line.263534292 Bus1=258907819 Bus2=263534294
New Line.263534338 Bus1=258908056 Bus2=263534340
New Line.274925126 Bus1=263682376 Bus2=274925125
New Line.274925127 Bus1=274925125 Bus2=258896603
New Line.399146163 Bus1=258908330 Bus2=399146165
New Line.263532951 Bus1=258903925 Bus2=263532953
New Line.263534297 Bus1=263534294 Bus2=258907824
New Line.699603640 Bus1=699603637 Bus2=258904206
New Line.699646166 Bus1=699646163 Bus2=258904483
New Line.263904553 Bus1=263904550 Bus2=261180495
New Line.699646165 Bus1=258904478 Bus2=699646163
New Line.399146169 Bus1=399146165 Bus2=258908335
New Line.264256729 Bus1=260761158 Bus2=264256731
New Line.263532834 Bus1=258903780 Bus2=263532836
New Line.716733190 Bus1=258903873 Bus2=716733192
New Line.264256724 Bus1=260761126 Bus2=264256722
New Line.258896304 Bus1=258896301 Bus2=258896306
New Line.716733195 Bus1=716733192 Bus2=258903883
New Line.258896383 Bus1=258896378 Bus2=258896385
New Line.263534392 Bus1=258908452 Bus2=263534394
New Line.263532839 Bus1=263532836 Bus2=258907718
New Line.263534310 Bus1=258896603 Bus2=263534312
New Line.264256720 Bus1=260761121 Bus2=264256722
New Line.263534397 Bus1=263534394 Bus2=260762277
New Line.263534315 Bus1=263534312 Bus2=260762252
New Line.263961998 Bus1=258908484 Bus2=263962000
New Line.263532933 Bus1=259562756 Bus2=263532935
New Line.258896388 Bus1=258896385 Bus2=258896390
New Line.264495214 Bus1=264495211 Bus2=258896311
New Line.263532893 Bus1=263532890 Bus2=258904563
New Line.263532938 Bus1=263532935 Bus2=260761126
New Line.263532897 Bus1=258903893 Bus2=263532899
New Line.263879215 Bus1=263879212 Bus2=260984962
New Line.264495218 Bus1=258896311 Bus2=264495220
New Line.263879210 Bus1=258908462 Bus2=263879212
New Line.259365161 Bus1=258907713 Bus2=259365163
New Line.699603609 Bus1=263532953 Bus2=699603607
New Line.263532992 Bus1=263532989 Bus2=260761081
New Line.263532911 Bus1=263532908 Bus2=258904466
New Line.263532996 Bus1=258903945 Bus2=263532998
New Line.263532915 Bus1=258903915 Bus2=263532917
New Line.259355408 Bus1=COMMONWEALTH_RET_01311205_reg Bus2=259355404
New Line.699646124 Bus1=699646121 Bus2=258904523
New Line.699646123 Bus1=258904518 Bus2=699646121
New Line.259355403 Bus1=259355404 Bus2=258896288
New Line.264003742 Bus1=264003739 Bus2=259562756
New Line.699603587 Bus1=699603584 Bus2=258903960
New Line.699603586 Bus1=258903955 Bus2=699603584
New Line.633960128 Bus1=633960094 Bus2=633960130
New Line.258903793 Bus1=258903790 Bus2=258903795
New Line.258907671 Bus1=258907668 Bus2=258907673
New Line.258907676 Bus1=258907673 Bus2=258907678
New Line.699646024 Bus1=699646021 Bus2=258904568
New Line.699625644 Bus1=258904221 Bus2=699625642
New Line.699625645 Bus1=699625642 Bus2=258904343
New Line.699646023 Bus1=258904563 Bus2=699646021
New Line.258907770 Bus1=258907757 Bus2=258907772
New Line.258907775 Bus1=258907772 Bus2=258907777
New Line.699624266 Bus1=699624251 Bus2=699624264
New Line.699624267 Bus1=699624264 Bus2=258904085
New Line.258904671 Bus1=258904666 Bus2=258904673
New Line.258904676 Bus1=258904673 Bus2=258904678
New Line.699645148 Bus1=699645145 Bus2=258904605
New Line.699645147 Bus1=258904595 Bus2=699645145
New Line.261180494 Bus1=261180495 Bus2=261180496
New Line.630011453 Bus1=258904568 Bus2=630011445
New Line.258904770 Bus1=258904767 Bus2=258904772
New Line.258907750 Bus1=258907747 Bus2=258907752
New Line.699624163 Bus1=263533025 Bus2=699624161
New Line.258907755 Bus1=258907752 Bus2=258907757
New Line.258904654 Bus1=258904651 Bus2=258904656
New Line.258904659 Bus1=258904656 Bus2=258904661
New Line.258904476 Bus1=258904471 Bus2=258904478
New Line.699625681 Bus1=699625678 Bus2=258904216
New Line.699625680 Bus1=258904211 Bus2=699625678
New Line.264379700 Bus1=264379697 Bus2=258907906
New Line.699622946 Bus1=258903915 Bus2=699622944
New Line.258904750 Bus1=258904747 Bus2=258904752
New Line.699622947 Bus1=699622944 Bus2=258903919
New Line.699625420 Bus1=258904350 Bus2=699625418
New Line.258907730 Bus1=258907725 Bus2=258907732
New Line.699625161 Bus1=699625148 Bus2=699625159
New Line.699625421 Bus1=699625418 Bus2=258904362
New Line.699644088 Bus1=699644085 Bus2=258904318
New Line.263682374 Bus1=258896598 Bus2=263682376
New Line.699644087 Bus1=258904313 Bus2=699644085
New Line.258907735 Bus1=258907732 Bus2=258907737
New Line.263682370 Bus1=263682367 Bus2=258903800
New Line.699625240 Bus1=258904318 Bus2=699625238
New Line.699625241 Bus1=699625238 Bus2=258904323
New Line.258907696 Bus1=258907693 Bus2=258907698
New Line.258904639 Bus1=258904634 Bus2=258904641
New Line.630011497 Bus1=630011493 Bus2=630011474
New Line.258904454 Bus1=258904446 Bus2=258904456
New Line.630011491 Bus1=630011445 Bus2=630011493
New Line.258904459 Bus1=258904406 Bus2=258904461
New Line.258904730 Bus1=258904725 Bus2=258904732
New Line.258904271 Bus1=258904268 Bus2=258904273
New Line.699624124 Bus1=699624121 Bus2=258904040
New Line.699625482 Bus1=699625479 Bus2=258904374
New Line.258907792 Bus1=258907787 Bus2=258907794
New Line.699625481 Bus1=258904367 Bus2=699625479
New Line.699645089 Bus1=258904263 Bus2=699645087
New Line.699622922 Bus1=699622919 Bus2=258903910
New Line.258907711 Bus1=258907708 Bus2=258907713
New Line.699624123 Bus1=699624110 Bus2=699624121
New Line.258904735 Bus1=258904732 Bus2=258904737
New Line.699622921 Bus1=258903905 Bus2=699622919
New Line.264381919 Bus1=258903806 Bus2=264381917
New Line.699624206 Bus1=699624203 Bus2=258904075
New Line.258904691 Bus1=258904688 Bus2=258904693
New Line.258904551 Bus1=258904548 Bus2=258904553
New Line.258904556 Bus1=258904538 Bus2=258904558
New Line.699624205 Bus1=263533016 Bus2=699624203
New Line.258904696 Bus1=258904693 Bus2=258904698
New Line.699625382 Bus1=699625379 Bus2=258904426
New Line.699625381 Bus1=258904421 Bus2=699625379
New Line.258904377 Bus1=258904374 Bus2=258904379
New Line.258904434 Bus1=258904431 Bus2=258904436
New Line.699625126 Bus1=699625123 Bus2=258904243
New Line.699625125 Bus1=258904238 Bus2=699625123
New Line.258904439 Bus1=258904436 Bus2=258904441
New Line.258904711 Bus1=258904708 Bus2=258904713
New Line.615970331 Bus1=258907718 Bus2=615970333
New Line.260761271 Bus1=260761268 Bus2=260761258
New Line.615970337 Bus1=615970333 Bus2=258907787
New Line.260761276 Bus1=258903848 Bus2=260761278
New Line.258904536 Bus1=258904533 Bus2=258904538
New Line.258904078 Bus1=258904075 Bus2=258904080
New Line.258904353 Bus1=258904350 Bus2=258904355
New Line.258904491 Bus1=258904488 Bus2=258904493
New Line.264505722 Bus1=264505719 Bus2=258903833
New Line.258904496 Bus1=258904493 Bus2=258904498
New Line.699625108 Bus1=699625105 Bus2=258904238
New Line.258904414 Bus1=258904411 Bus2=258904416
New Line.264505721 Bus1=258903826 Bus2=264505719
New Line.699625107 Bus1=263533070 Bus2=699625105
New Line.258904419 Bus1=258904416 Bus2=258904421
New Line.258908472 Bus1=258908469 Bus2=258908474
New Line.260761251 Bus1=260761248 Bus2=260761253
New Line.615970396 Bus1=615970394 Bus2=258907799
New Line.615970395 Bus1=258907794 Bus2=615970394
New Line.258904593 Bus1=258904583 Bus2=258904595
New Line.258903876 Bus1=258903873 Bus2=258903878
New Line.258904179 Bus1=258904176 Bus2=258904181
New Line.258908477 Bus1=258908474 Bus2=258908479
New Line.258904516 Bus1=258904513 Bus2=258904518
New Line.258904058 Bus1=258904055 Bus2=258904060
New Line.260761074 Bus1=260761071 Bus2=260761076
New Line.258904598 Bus1=258904595 Bus2=258904600
New Line.258904331 Bus1=258904328 Bus2=258904333
New Line.627235690 Bus1=627235688 Bus2=258896623
New Line.258904336 Bus1=258904333 Bus2=258904338
New Line.258904152 Bus1=258904147 Bus2=258904154
New Line.263530664 Bus1=258896296 Bus2=263530666
New Line.258904291 Bus1=258904288 Bus2=258904293
New Line.704839478 Bus1=258903833 Bus2=704839480
New Line.263682010 Bus1=263682007 Bus2=258903995
New Line.699603843 Bus1=258903826 Bus2=699603841
New Line.258904296 Bus1=258904293 Bus2=258904298
New Line.263530669 Bus1=263530666 Bus2=258908462
New Line.627235795 Bus1=258896618 Bus2=627235797
New Line.258908450 Bus1=258908447 Bus2=258908452
New Line.260761236 Bus1=260761233 Bus2=260761193
New Line.258903851 Bus1=258903838 Bus2=258903853
New Line.258903856 Bus1=258903853 Bus2=258903858
New Line.258904159 Bus1=258904154 Bus2=258904161
New Line.258904219 Bus1=258904216 Bus2=258904221
